Version 4
SHEET 1 880 680
WIRE 400 96 64 96
WIRE 400 208 400 96
WIRE 336 240 192 240
WIRE 336 272 272 272
WIRE 64 304 64 96
WIRE 272 304 272 272
WIRE 192 336 192 320
WIRE 192 336 144 336
WIRE 592 336 528 336
WIRE 192 352 192 336
WIRE 272 400 272 368
WIRE 336 400 272 400
WIRE 336 432 192 432
WIRE 144 480 144 336
WIRE 304 528 304 512
WIRE 304 560 304 528
WIRE 304 560 144 560
WIRE 64 576 64 384
WIRE 256 576 64 576
WIRE 400 576 400 464
WIRE 400 576 256 576
FLAG 256 576 0
FLAG 304 528 COM
SYMBOL ad620 384 336 R0
SYMATTR InstName U1
SYMBOL voltage 64 288 R0
SYMATTR InstName V1
SYMBOL res2 256 304 R0
SYMATTR InstName R1
SYMBOL voltage 192 224 R0
SYMATTR InstName V2
SYMATTR Value 63m
SYMBOL voltage 192 336 R0
SYMATTR InstName V3
SYMATTR Value 77m
SYMBOL voltage 144 464 R0
SYMATTR InstName V4
SYMATTR Value 70m
TEXT 432 168 Left 2 !.include ad620.cir\n.options gminsteps=0\n.tran 0 5m 0 10u
